data_test

_audit_creation_method generated by ABACUS

_cell_length_a 2.51243
_cell_length_b 2.51243
_cell_length_c 7.70726
_cell_angle_alpha 90
_cell_angle_beta 90
_cell_angle_gamma 120

_symmetry_space_group_name_H-M 
_symmetry_Int_Tables_number 

loop_
_atom_site_label
_atom_site_fract_x
_atom_site_fract_y
_atom_site_fract_z
B 0.67731 0.336377 0.754561
B 0.347263 0.720167 0.257963
N 0.702274 0.381812 0.239578
N 0.296615 0.679819 0.740353
