data_test

_audit_creation_method generated by ABACUS

_cell_length_a 5.69901
_cell_length_b 5.69901
_cell_length_c 5.69901
_cell_angle_alpha 90
_cell_angle_beta 90
_cell_angle_gamma 90

_symmetry_space_group_name_H-M 
_symmetry_Int_Tables_number 

loop_
_atom_site_label
_atom_site_fract_x
_atom_site_fract_y
_atom_site_fract_z
Cu 0.249892 0.248797 0.751951
Cu 0.238536 0.764921 0.260304
Cu 0.749401 0.236271 0.247551
Cu 0.75774 0.750013 0.731409
Br 0.993758 0.991571 0.980321
Br 0.000167318 0.477053 0.495354
Br 0.496076 0.0121576 0.517823
Br 0.518262 0.488038 0.00999787
