data_test

_audit_creation_method generated by ABACUS

_cell_length_a 3.58007
_cell_length_b 3.58007
_cell_length_c 6.25086
_cell_angle_alpha 90
_cell_angle_beta 90
_cell_angle_gamma 120

_symmetry_space_group_name_H-M 
_symmetry_Int_Tables_number 

loop_
_atom_site_label
_atom_site_fract_x
_atom_site_fract_y
_atom_site_fract_z
Pt 0.995684 0.999418 0.0171918
S 0.659392 0.331524 0.801974
S 0.350474 0.685991 0.204376
