data_test

_audit_creation_method generated by ABACUS

_cell_length_a 3.21629
_cell_length_b 3.21629
_cell_length_c 5.23996
_cell_angle_alpha 90
_cell_angle_beta 90
_cell_angle_gamma 120

_symmetry_space_group_name_H-M 
_symmetry_Int_Tables_number 

loop_
_atom_site_label
_atom_site_fract_x
_atom_site_fract_y
_atom_site_fract_z
Ga 0.309483 0.652499 0.992431
Ga 0.616415 0.305573 0.505619
N 0.35349 0.667959 0.37797
N 0.623991 0.309605 0.86374
