data_test

_audit_creation_method generated by ABACUS

_cell_length_a 6.41414
_cell_length_b 6.41414
_cell_length_c 6.41414
_cell_angle_alpha 90
_cell_angle_beta 90
_cell_angle_gamma 90

_symmetry_space_group_name_H-M 
_symmetry_Int_Tables_number 

loop_
_atom_site_label
_atom_site_fract_x
_atom_site_fract_y
_atom_site_fract_z
Cs 0.492011 0.498266 0.492505
Pb 0.0081663 0.00383247 0.979472
I 0.0199838 0.000929256 0.492122
I 0.00650686 0.506268 0.0165596
I 0.490752 0.00692554 0.00156665
