data_test

_audit_creation_method generated by ABACUS

_cell_length_a 3.59136
_cell_length_b 3.59136
_cell_length_c 4.41046
_cell_angle_alpha 90
_cell_angle_beta 90
_cell_angle_gamma 90

_symmetry_space_group_name_H-M 
_symmetry_Int_Tables_number 

loop_
_atom_site_label
_atom_site_fract_x
_atom_site_fract_y
_atom_site_fract_z
Li 0.512076 0.522815 0.00247878
Li 0.995888 0.998777 0.976632
H 0.469463 0.00457473 0.577234
H 0.9937 0.534705 0.421874
O 0.994806 0.52168 0.197634
O 0.537162 0.00892817 0.798869
