data_test

_audit_creation_method generated by ABACUS

_cell_length_a 3.8147
_cell_length_b 3.8147
_cell_length_c 3.8147
_cell_angle_alpha 90
_cell_angle_beta 90
_cell_angle_gamma 90

_symmetry_space_group_name_H-M 
_symmetry_Int_Tables_number 

loop_
_atom_site_label
_atom_site_fract_x
_atom_site_fract_y
_atom_site_fract_z
Cu 0.0122762 0.981866 0.528988
Cu 0.999172 0.473146 0.996826
Cu 0.493807 0.986789 0.0202621
N 0.975637 0.991034 0.991482
