data_test

_audit_creation_method generated by ABACUS

_cell_length_a 3.12859
_cell_length_b 3.12859
_cell_length_c 5.01695
_cell_angle_alpha 90
_cell_angle_beta 90
_cell_angle_gamma 120

_symmetry_space_group_name_H-M 
_symmetry_Int_Tables_number 

loop_
_atom_site_label
_atom_site_fract_x
_atom_site_fract_y
_atom_site_fract_z
Al 0.308422 0.672669 0.00399206
Al 0.690638 0.314717 0.515848
N 0.346515 0.663409 0.364772
N 0.658418 0.317092 0.874297
