data_test

_audit_creation_method generated by ABACUS

_cell_length_a 5.34712
_cell_length_b 5.34712
_cell_length_c 5.34712
_cell_angle_alpha 90
_cell_angle_beta 90
_cell_angle_gamma 90

_symmetry_space_group_name_H-M 
_symmetry_Int_Tables_number 

loop_
_atom_site_label
_atom_site_fract_x
_atom_site_fract_y
_atom_site_fract_z
Au 0.260136 0.244103 0.752018
Au 0.747054 0.24896 0.262724
Au 0.252411 0.748539 0.244801
Au 0.746433 0.765053 0.730313
S 0.983744 0.00226202 0.00361414
S 0.49973 0.494517 0.473735
