data_test

_audit_creation_method generated by ABACUS

_cell_length_a 4.21046
_cell_length_b 4.21046
_cell_length_c 6.90218
_cell_angle_alpha 90
_cell_angle_beta 90
_cell_angle_gamma 120

_symmetry_space_group_name_H-M 
_symmetry_Int_Tables_number 

loop_
_atom_site_label
_atom_site_fract_x
_atom_site_fract_y
_atom_site_fract_z
In 0.311531 0.682528 0.999258
In 0.685812 0.349578 0.514195
P 0.316193 0.687001 0.376025
P 0.659185 0.333264 0.884672
