data_test

_audit_creation_method generated by ABACUS

_cell_length_a 2.78873
_cell_length_b 4.41105
_cell_length_c 5.96742
_cell_angle_alpha 90
_cell_angle_beta 90
_cell_angle_gamma 90

_symmetry_space_group_name_H-M 
_symmetry_Int_Tables_number 

loop_
_atom_site_label
_atom_site_fract_x
_atom_site_fract_y
_atom_site_fract_z
Cu 0.538328 0.790404 0.226485
Cu 0.985773 0.304855 0.764406
H 0.0167105 0.335992 0.250286
H 0.475833 0.818175 0.746683
O 0.521578 0.0375499 0.66869
O 0.994569 0.558897 0.333909
O 0.502717 0.50244 0.857777
O 0.998574 0.0113909 0.155848
