data_test

_audit_creation_method generated by ABACUS

_cell_length_a 4.56607
_cell_length_b 4.56607
_cell_length_c 7.42356
_cell_angle_alpha 90
_cell_angle_beta 90
_cell_angle_gamma 120

_symmetry_space_group_name_H-M 
_symmetry_Int_Tables_number 

loop_
_atom_site_label
_atom_site_fract_x
_atom_site_fract_y
_atom_site_fract_z
Li 0.699051 0.335093 0.500962
Li 0.320995 0.644698 0.992093
I 0.686501 0.346848 0.864958
I 0.315525 0.649397 0.372477
